LTspice 24.0.12 for Windows
Circuit: CIRCUIT
Start Time: Thu Jan 16 00:09:38 2025
Ignoring BSIM parameter XL
Ignoring BSIM parameter XW
Ignoring BSIM parameter XL
Ignoring BSIM parameter XW
solver = Normal
Maximum thread count: 4



Warning: Pd = 0 is less than W.
Warning: Ps = 0 is less than W.
Warning: Pd = 0 is less than W.
Warning: Ps = 0 is less than W.
Warning: Pd = 0 is less than W.
Warning: Ps = 0 is less than W.
Warning: Pd = 0 is less than W.
Warning: Ps = 0 is less than W.
Direct Newton iteration for .op point succeeded.
.step pw2=2e-10



.step pw2=2.01e-10



.step pw2=2.02e-10



.step pw2=2.03e-10



.step pw2=2.04e-10



.step pw2=2.05e-10



.step pw2=2.06e-10



.step pw2=2.07e-10



.step pw2=2.08e-10



.step pw2=2.09e-10



.step pw2=2.1e-10



.step pw2=2.11e-10



.step pw2=2.12e-10



.step pw2=2.13e-10



.step pw2=2.14e-10



.step pw2=2.15e-10



.step pw2=2.16e-10



.step pw2=2.17e-10



.step pw2=2.18e-10



.step pw2=2.19e-10



.step pw2=2.2e-10



.step pw2=2.21e-10



.step pw2=2.22e-10



.step pw2=2.23e-10



.step pw2=2.24e-10



.step pw2=2.25e-10



.step pw2=2.26e-10



.step pw2=2.27e-10



.step pw2=2.28e-10



.step pw2=2.29e-10



.step pw2=2.3e-10



.step pw2=2.31e-10



.step pw2=2.32e-10



.step pw2=2.33e-10



.step pw2=2.34e-10



.step pw2=2.35e-10



.step pw2=2.36e-10



.step pw2=2.37e-10



.step pw2=2.38e-10



.step pw2=2.39e-10



.step pw2=2.4e-10



.step pw2=2.41e-10



.step pw2=2.42e-10



.step pw2=2.43e-10



.step pw2=2.44e-10



.step pw2=2.45e-10



.step pw2=2.46e-10



.step pw2=2.47e-10



.step pw2=2.48e-10



.step pw2=2.49e-10
tnom = 27
temp = 27
method = modified trap
.step pw2=2.5e-10
Total elapsed time: 13.855 seconds.

